LTspice 24.1.9 for Windows
Circuit: Z:\home\grzegorz\git\MADC_ARTY_Test\LTSpice\Draft1.net
Start Time: Sun Aug 10 13:19:06 2025
solver = Normal
Maximum thread count: 12
tnom = 27
temp = 27
method = trap
Direct Newton iteration for .op point succeeded.
Total elapsed time: 0.071 seconds.

Files loaded:
Z:\home\grzegorz\git\MADC_ARTY_Test\LTSpice\Draft1.net
C:\users\grzegorz\AppData\Local\LTspice\lib\cmp\standard.jft
C:\users\grzegorz\AppData\Local\LTspice\lib\sub\LTC.lib

