LTspice 24.1.9 for Windows
Circuit: Z:\home\grzegorz\git\MADC_ARTY\LTSpice\VREF.net
Start Time: Thu Aug 14 22:43:16 2025
solver = Normal
Maximum thread count: 12
tnom = 27
temp = 27
method = trap
Direct Newton iteration failed to find .op point.  (Use ".option noopiter" to skip.)
Starting Gmin stepping
Gmin = 10
Gmin = 1.07374
Gmin = 0.115292
Gmin = 0.0123794
Gmin = 0.00132923
Gmin = 0.000142725
Gmin = 1.5325e-05
Gmin = 1.6455e-06
vernier = 0.5
vernier = 0.25
Gmin = 8.26349e-07
vernier = 0.333333
vernier = 0.444444
Gmin = 3.50743e-07
vernier = 0.592592
vernier = 0.790123
Gmin = 9.32058e-08
vernier = 1
Gmin = 1.24011e-08
Gmin = 1.33156e-09
Gmin = 1.42975e-10
Gmin = 1.53518e-11
Gmin = 1.64839e-12
Gmin = 1.76994e-13
Gmin = 0
Gmin stepping succeeded in finding the operating point.

Total elapsed time: 0.252 seconds.

Files loaded:
Z:\home\grzegorz\git\MADC_ARTY\LTSpice\VREF.net
C:\users\grzegorz\AppData\Local\LTspice\lib\sub\ADI.lib
C:\users\grzegorz\AppData\Local\LTspice\lib\sub\ADR1399E.sub
C:\users\grzegorz\AppData\Local\LTspice\lib\sub\ADR1399H.sub

